# Packages
 &PACKAGES
 useDiagnostics=.TRUE.,
 useRBCS=.TRUE.,
 useOBCS=.FALSE., 
 useKPP=.TRUE.,
 useLayers=.FALSE.,
 useBBL=.FALSE.,
 /
