
#
# ***************
# KPP parameters
# ***************
 &KPP_PARM01
  minKPPhbl=50.,
 /
